Reffs/Redes/Rede_03/_trafo3 - Copia/ckt03_Power_elem_kVA.txt

CIRCUIT ELEMENT POWER FLOW

(Power Flow into element from indicated Bus)

Power Delivery Elements

  Bus                 Phase     kW     +j   kvar         kVA         PF

ELEMENT = "Vsource.SOURCE"
BUS_XFMR_PRI_33998182     1        -2.2 +j     -1.8        2.8       0.7790
BUS_XFMR_PRI_33998182     2        -2.4 +j     -1.2        2.7       0.8981
BUS_XFMR_PRI_33998182     3        -2.8 +j     -1.7        3.3       0.8586
   TERMINAL TOTAL .............    -7.4 +j     -4.6        8.8       0.8486
BUS_XFMR_PRI_33998182     0         0.0 +j      0.0        0.0       1.0000
BUS_XFMR_PRI_33998182     0         0.0 +j      0.0        0.0       1.0000
BUS_XFMR_PRI_33998182     0         0.0 +j      0.0        0.0       1.0000
   TERMINAL TOTAL .............     0.0 +j      0.0        0.0       1.0000

ELEMENT = "Line._ABCN_L01-SEC"
BUS_XFMR_SEC_33998182     1         1.5 +j      0.9        1.8       0.8510
BUS_XFMR_SEC_33998182     2         1.1 +j      0.7        1.3       0.8502
BUS_XFMR_SEC_33998182     3         1.2 +j      0.7        1.4       0.8499
BUS_XFMR_SEC_33998182     4         0.0 +j      0.0        0.0       0.0920
   TERMINAL TOTAL .............     3.8 +j      2.4        4.5       0.8504
BUS_33998182_001          1        -1.5 +j     -0.9        1.8       0.8509
BUS_33998182_001          2        -1.1 +j     -0.7        1.3       0.8501
BUS_33998182_001          3        -1.2 +j     -0.7        1.4       0.8498
BUS_33998182_001          4         0.0 +j     -0.0        0.0      -0.0064
   TERMINAL TOTAL .............    -3.8 +j     -2.4        4.5       0.8503

ELEMENT = "Line._CN_L02-RAMAL"
BUS_XFMR_SEC_33998182     3         0.0 +j     -0.0        0.0      -0.0012
BUS_XFMR_SEC_33998182     4        -0.0 +j     -0.0        0.0       0.8318
   TERMINAL TOTAL .............     0.0 +j     -0.0        0.0      -0.0000
BUS_33998182_013          3        -0.0 +j      0.0        0.0      -0.7573
BUS_33998182_013          4         0.0 +j      0.0        0.0       0.0230
   TERMINAL TOTAL .............    -0.0 +j      0.0        0.0      -0.7565

ELEMENT = "Line._ABCN_L03-SEC"
BUS_XFMR_SEC_33998182     1         1.4 +j      0.8        1.6       0.8503
BUS_XFMR_SEC_33998182     2         0.7 +j      0.5        0.9       0.8507
BUS_XFMR_SEC_33998182     3         1.5 +j      0.9        1.8       0.8511
BUS_XFMR_SEC_33998182     4         0.0 +j      0.0        0.0       0.8869
   TERMINAL TOTAL .............     3.6 +j      2.2        4.2       0.8507
BUS_33998182_006          1        -1.4 +j     -0.8        1.6       0.8501
BUS_33998182_006          2        -0.7 +j     -0.5        0.9       0.8505
BUS_33998182_006          3        -1.5 +j     -0.9        1.7       0.8509
BUS_33998182_006          4        -0.0 +j     -0.0        0.0       0.9072
   TERMINAL TOTAL .............    -3.6 +j     -2.2        4.2       0.8505

ELEMENT = "Line._ABCN_L04-SEC"
BUS_33998182_001          1        -0.0 +j     -0.0        0.0       0.1379
BUS_33998182_001          2         0.0 +j     -0.0        0.0      -0.0277
BUS_33998182_001          3         0.0 +j     -0.0        0.0      -0.0977
BUS_33998182_001          4        -0.0 +j     -0.0        0.0       0.8571
   TERMINAL TOTAL .............     0.0 +j     -0.0        0.0      -0.0000
BUS_33998182_014          1         0.0 +j      0.0        0.0       0.9972
BUS_33998182_014          2         0.0 +j     -0.0        0.0      -0.3600
BUS_33998182_014          3        -0.0 +j     -0.0        0.0       0.9991
BUS_33998182_014          4        -0.0 +j      0.0        0.0      -0.9020
   TERMINAL TOTAL .............     0.0 +j     -0.0        0.0      -0.4745

ELEMENT = "Line._ABCN_L05-SEC"
BUS_33998182_001          1         0.4 +j      0.2        0.5       0.8509
BUS_33998182_001          2         0.2 +j      0.1        0.2       0.8499
BUS_33998182_001          3         0.1 +j      0.0        0.1       0.8495
BUS_33998182_001          4        -0.0 +j      0.0        0.0      -0.5779
   TERMINAL TOTAL .............     0.7 +j      0.4        0.8       0.8501
BUS_33998182_002          1        -0.4 +j     -0.2        0.5       0.8508
BUS_33998182_002          2        -0.2 +j     -0.1        0.2       0.8498
BUS_33998182_002          3        -0.1 +j     -0.0        0.1       0.8495
BUS_33998182_002          4         0.0 +j     -0.0        0.0      -0.6407
   TERMINAL TOTAL .............    -0.7 +j     -0.4        0.8       0.8501

ELEMENT = "Line._ABCN_L06-SEC"
BUS_33998182_001          1         1.1 +j      0.7        1.3       0.8509
BUS_33998182_001          2         0.9 +j      0.6        1.1       0.8502
BUS_33998182_001          3         1.1 +j      0.7        1.3       0.8498
BUS_33998182_001          4         0.0 +j      0.0        0.0       0.7666
   TERMINAL TOTAL .............     3.1 +j      1.9        3.7       0.8503
BUS_33998182_003          1        -1.1 +j     -0.7        1.3       0.8507
BUS_33998182_003          2        -0.9 +j     -0.6        1.1       0.8500
BUS_33998182_003          3        -1.1 +j     -0.7        1.3       0.8497
BUS_33998182_003          4        -0.0 +j     -0.0        0.0       0.7343
   TERMINAL TOTAL .............    -3.1 +j     -1.9        3.7       0.8502

ELEMENT = "Line._AN_L07-RAMAL"
BUS_33998182_002          1         0.2 +j      0.1        0.2       0.8507
BUS_33998182_002          4        -0.0 +j      0.0        0.0      -0.2494
   TERMINAL TOTAL .............     0.2 +j      0.1        0.2       0.8501
BUS_33998182_015          1        -0.2 +j     -0.1        0.2       0.8507
BUS_33998182_015          4         0.0 +j     -0.0        0.0      -0.3184
   TERMINAL TOTAL .............    -0.2 +j     -0.1        0.2       0.8500

ELEMENT = "Line._BCN_L08-RAMAL"
BUS_33998182_002          2         0.1 +j      0.0        0.1       0.8499
BUS_33998182_002          3         0.1 +j      0.0        0.1       0.8495
BUS_33998182_002          4         0.0 +j     -0.0        0.0      -0.3224
   TERMINAL TOTAL .............     0.1 +j      0.1        0.2       0.8500
BUS_33998182_016          2        -0.1 +j     -0.0        0.1       0.8499
BUS_33998182_016          3        -0.1 +j     -0.0        0.1       0.8495
BUS_33998182_016          4        -0.0 +j      0.0        0.0      -0.2800
   TERMINAL TOTAL .............    -0.1 +j     -0.1        0.2       0.8500

ELEMENT = "Line._ABCN_L09-SEC"
BUS_33998182_002          1         0.2 +j      0.1        0.3       0.8509
BUS_33998182_002          2         0.1 +j      0.1        0.2       0.8498
BUS_33998182_002          3         0.0 +j      0.0        0.0       0.8514
BUS_33998182_002          4        -0.0 +j      0.0        0.0      -0.8171
   TERMINAL TOTAL .............     0.4 +j      0.2        0.4       0.8501
BUS_33998182_004          1        -0.2 +j     -0.1        0.3       0.8508
BUS_33998182_004          2        -0.1 +j     -0.1        0.2       0.8498
BUS_33998182_004          3        -0.0 +j     -0.0        0.0       0.8502
BUS_33998182_004          4         0.0 +j     -0.0        0.0      -0.8912
   TERMINAL TOTAL .............    -0.4 +j     -0.2        0.4       0.8501

ELEMENT = "Line._ABCN_L10-SEC"
BUS_33998182_003          1         0.2 +j      0.1        0.3       0.8506
BUS_33998182_003          2         0.1 +j      0.0        0.1       0.8499
BUS_33998182_003          3         0.2 +j      0.1        0.3       0.8497
BUS_33998182_003          4         0.0 +j      0.0        0.0       0.7333
   TERMINAL TOTAL .............     0.5 +j      0.3        0.6       0.8501
BUS_33998182_005          1        -0.2 +j     -0.1        0.3       0.8505
BUS_33998182_005          2        -0.1 +j     -0.0        0.1       0.8499
BUS_33998182_005          3        -0.2 +j     -0.1        0.3       0.8497
BUS_33998182_005          4        -0.0 +j     -0.0        0.0       0.7328
   TERMINAL TOTAL .............    -0.5 +j     -0.3        0.6       0.8501

ELEMENT = "Line._ABCN_L11-RAMAL"
BUS_33998182_003          1         0.9 +j      0.5        1.0       0.8508
BUS_33998182_003          2         0.9 +j      0.5        1.0       0.8500
BUS_33998182_003          3         0.9 +j      0.5        1.0       0.8497
BUS_33998182_003          4         0.0 +j      0.0        0.0       0.7742
   TERMINAL TOTAL .............     2.6 +j      1.6        3.1       0.8502
BUS_33998182_017          1        -0.9 +j     -0.5        1.0       0.8506
BUS_33998182_017          2        -0.9 +j     -0.5        1.0       0.8499
BUS_33998182_017          3        -0.9 +j     -0.5        1.0       0.8495
BUS_33998182_017          4        -0.0 +j     -0.0        0.0       0.7737
   TERMINAL TOTAL .............    -2.6 +j     -1.6        3.1       0.8500

ELEMENT = "Line._AN_L12-RAMAL"
BUS_33998182_004          1         0.2 +j      0.1        0.3       0.8508
BUS_33998182_004          4        -0.0 +j      0.0        0.0      -0.3907
   TERMINAL TOTAL .............     0.2 +j      0.1        0.3       0.8501
BUS_33998182_018          1        -0.2 +j     -0.1        0.3       0.8508
BUS_33998182_018          4         0.0 +j     -0.0        0.0      -0.5067
   TERMINAL TOTAL .............    -0.2 +j     -0.1        0.3       0.8500

ELEMENT = "Line._BCN_L13-RAMAL"
BUS_33998182_004          2         0.1 +j      0.1        0.2       0.8498
BUS_33998182_004          3         0.0 +j      0.0        0.0       0.8502
BUS_33998182_004          4        -0.0 +j     -0.0        0.0       0.5495
   TERMINAL TOTAL .............     0.1 +j      0.1        0.2       0.8501
BUS_33998182_019          2        -0.1 +j     -0.1        0.2       0.8498
BUS_33998182_019          3        -0.0 +j     -0.0        0.0       0.8495
BUS_33998182_019          4         0.0 +j      0.0        0.0       0.6109
   TERMINAL TOTAL .............    -0.1 +j     -0.1        0.2       0.8500

ELEMENT = "Line._ABCN_L14-RAMAL"
BUS_33998182_005          1         0.1 +j      0.0        0.1       0.8505
BUS_33998182_005          2         0.1 +j      0.0        0.1       0.8499
BUS_33998182_005          3         0.1 +j      0.0        0.1       0.8496
BUS_33998182_005          4         0.0 +j      0.0        0.0       0.9976
   TERMINAL TOTAL .............     0.2 +j      0.1        0.2       0.8500
BUS_33998182_020          1        -0.1 +j     -0.0        0.1       0.8505
BUS_33998182_020          2        -0.1 +j     -0.0        0.1       0.8499
BUS_33998182_020          3        -0.1 +j     -0.0        0.1       0.8496
BUS_33998182_020          4        -0.0 +j     -0.0        0.0       0.9977
   TERMINAL TOTAL .............    -0.2 +j     -0.1        0.2       0.8500

ELEMENT = "Line._ACN_L15-RAMAL"
BUS_33998182_005          1         0.2 +j      0.1        0.2       0.8505
BUS_33998182_005          3         0.2 +j      0.1        0.2       0.8497
BUS_33998182_005          4         0.0 +j      0.0        0.0       0.7262
   TERMINAL TOTAL .............     0.4 +j      0.2        0.4       0.8501
BUS_33998182_021          1        -0.2 +j     -0.1        0.2       0.8505
BUS_33998182_021          3        -0.2 +j     -0.1        0.2       0.8497
BUS_33998182_021          4        -0.0 +j     -0.0        0.0       0.6360
   TERMINAL TOTAL .............    -0.4 +j     -0.2        0.4       0.8500

ELEMENT = "Line._BN_L16-RAMAL"
BUS_33998182_006          2         0.1 +j      0.1        0.1       0.8500
BUS_33998182_006          4        -0.0 +j     -0.0        0.0       0.8322
   TERMINAL TOTAL .............     0.1 +j      0.1        0.1       0.8500
BUS_33998182_022          2        -0.1 +j     -0.1        0.1       0.8500
BUS_33998182_022          4         0.0 +j      0.0        0.0       0.8497
   TERMINAL TOTAL .............    -0.1 +j     -0.1        0.1       0.8500

ELEMENT = "Line._ABCN_L17-SEC"
BUS_33998182_006          1         1.4 +j      0.8        1.6       0.8501
BUS_33998182_006          2         0.7 +j      0.4        0.8       0.8506
BUS_33998182_006          3         1.5 +j      0.9        1.7       0.8509
BUS_33998182_006          4         0.0 +j      0.0        0.0       0.8994
   TERMINAL TOTAL .............     3.5 +j      2.2        4.1       0.8505
BUS_33998182_007          1        -1.4 +j     -0.8        1.6       0.8499
BUS_33998182_007          2        -0.7 +j     -0.4        0.8       0.8505
BUS_33998182_007          3        -1.5 +j     -0.9        1.7       0.8507
BUS_33998182_007          4        -0.0 +j     -0.0        0.0       0.9596
   TERMINAL TOTAL .............    -3.5 +j     -2.2        4.1       0.8504

ELEMENT = "Line._BCN_L18-RAMAL"
BUS_33998182_006          2         0.0 +j      0.0        0.0       0.8511
BUS_33998182_006          3         0.0 +j      0.0        0.0       0.8513
BUS_33998182_006          4         0.0 +j     -0.0        0.0      -0.9779
   TERMINAL TOTAL .............     0.0 +j      0.0        0.0       0.8519
BUS_33998182_023          2        -0.0 +j     -0.0        0.0       0.8500
BUS_33998182_023          3        -0.0 +j     -0.0        0.0       0.8496
BUS_33998182_023          4        -0.0 +j      0.0        0.0      -0.9774
   TERMINAL TOTAL .............    -0.0 +j     -0.0        0.0       0.8505

ELEMENT = "Line._ABCN_L19-SEC"
BUS_33998182_007          1         0.3 +j      0.2        0.4       0.8489
BUS_33998182_007          2         0.5 +j      0.3        0.5       0.8508
BUS_33998182_007          3         1.1 +j      0.7        1.2       0.8508
BUS_33998182_007          4         0.0 +j     -0.0        0.0      -0.7026
   TERMINAL TOTAL .............     1.9 +j      1.2        2.2       0.8505
BUS_33998182_008          1        -0.3 +j     -0.2        0.4       0.8488
BUS_33998182_008          2        -0.5 +j     -0.3        0.5       0.8506
BUS_33998182_008          3        -1.1 +j     -0.7        1.2       0.8506
BUS_33998182_008          4         0.0 +j      0.0        0.0       0.8526
   TERMINAL TOTAL .............    -1.9 +j     -1.2        2.2       0.8503

ELEMENT = "Line._ABCN_L20-SEC"
BUS_33998182_007          1         0.8 +j      0.5        0.9       0.8503
BUS_33998182_007          2         0.2 +j      0.1        0.2       0.8497
BUS_33998182_007          3         0.4 +j      0.3        0.5       0.8505
BUS_33998182_007          4         0.0 +j      0.0        0.0       0.4789
   TERMINAL TOTAL .............     1.4 +j      0.9        1.7       0.8502
BUS_33998182_009          1        -0.8 +j     -0.5        0.9       0.8502
BUS_33998182_009          2        -0.2 +j     -0.1        0.2       0.8497
BUS_33998182_009          3        -0.4 +j     -0.3        0.5       0.8505
BUS_33998182_009          4         0.0 +j     -0.0        0.0      -0.9355
   TERMINAL TOTAL .............    -1.4 +j     -0.9        1.7       0.8502

ELEMENT = "Line._ABCN_L21-SEC"
BUS_33998182_007          1         0.2 +j      0.1        0.3       0.8502
BUS_33998182_007          2         0.0 +j     -0.0        0.0      -0.0278
BUS_33998182_007          3         0.0 +j     -0.0        0.0      -0.0979
BUS_33998182_007          4         0.0 +j      0.0        0.0       0.1192
   TERMINAL TOTAL .............     0.2 +j      0.1        0.3       0.8501
BUS_33998182_010          1        -0.2 +j     -0.1        0.3       0.8502
BUS_33998182_010          2         0.0 +j      0.0        0.0       0.8320
BUS_33998182_010          3         0.0 +j      0.0        0.0       0.5661
BUS_33998182_010          4         0.0 +j     -0.0        0.0      -0.0683
   TERMINAL TOTAL .............    -0.2 +j     -0.1        0.3       0.8501

ELEMENT = "Line._BCN_L22-RAMAL"
BUS_33998182_008          2         0.2 +j      0.1        0.3       0.8506
BUS_33998182_008          3         0.3 +j      0.2        0.4       0.8500
BUS_33998182_008          4        -0.0 +j      0.0        0.0      -0.9987
   TERMINAL TOTAL .............     0.5 +j      0.3        0.6       0.8501
BUS_33998182_024          2        -0.2 +j     -0.1        0.3       0.8506
BUS_33998182_024          3        -0.3 +j     -0.2        0.4       0.8499
BUS_33998182_024          4         0.0 +j     -0.0        0.0      -0.9994
   TERMINAL TOTAL .............    -0.5 +j     -0.3        0.6       0.8500

ELEMENT = "Line._ABCN_L23-SEC"
BUS_33998182_008          1         0.3 +j      0.2        0.4       0.8488
BUS_33998182_008          2         0.0 +j     -0.0        0.0      -0.0252
BUS_33998182_008          3         0.8 +j      0.5        0.9       0.8509
BUS_33998182_008          4        -0.0 +j     -0.0        0.0       0.3687
   TERMINAL TOTAL .............     1.1 +j      0.7        1.3       0.8504
BUS_33998182_011          1        -0.3 +j     -0.2        0.4       0.8488
BUS_33998182_011          2        -0.0 +j     -0.0        0.0       0.9958
BUS_33998182_011          3        -0.7 +j     -0.5        0.9       0.8507
BUS_33998182_011          4         0.0 +j      0.0        0.0       0.8014
   TERMINAL TOTAL .............    -1.1 +j     -0.7        1.3       0.8502

ELEMENT = "Line._BN_L24-RAMAL"
BUS_33998182_008          2         0.2 +j      0.2        0.3       0.8506
BUS_33998182_008          4        -0.0 +j      0.0        0.0      -0.1622
   TERMINAL TOTAL .............     0.2 +j      0.2        0.3       0.8501
BUS_33998182_025          2        -0.2 +j     -0.2        0.3       0.8505
BUS_33998182_025          4         0.0 +j     -0.0        0.0      -0.3174
   TERMINAL TOTAL .............    -0.2 +j     -0.2        0.3       0.8500

ELEMENT = "Line._ABN_L25-RAMAL"
BUS_33998182_009          1         0.0 +j      0.0        0.0       0.8501
BUS_33998182_009          2         0.1 +j      0.1        0.1       0.8499
BUS_33998182_009          4         0.0 +j     -0.0        0.0      -0.3012
   TERMINAL TOTAL .............     0.1 +j      0.1        0.1       0.8500
BUS_33998182_026          1        -0.0 +j     -0.0        0.0       0.8501
BUS_33998182_026          2        -0.1 +j     -0.1        0.1       0.8499
BUS_33998182_026          4        -0.0 +j      0.0        0.0      -0.1176
   TERMINAL TOTAL .............    -0.1 +j     -0.1        0.1       0.8500

ELEMENT = "Line._CN_L26-RAMAL"
BUS_33998182_009          3         0.1 +j      0.0        0.1       0.8501
BUS_33998182_009          4         0.0 +j      0.0        0.0       0.4939
   TERMINAL TOTAL .............     0.1 +j      0.0        0.1       0.8500
BUS_33998182_027          3        -0.1 +j     -0.0        0.1       0.8501
BUS_33998182_027          4        -0.0 +j     -0.0        0.0       0.3368
   TERMINAL TOTAL .............    -0.1 +j     -0.0        0.1       0.8500

ELEMENT = "Line._ABCN_L27-SEC"
BUS_33998182_009          1         0.5 +j      0.3        0.6       0.8503
BUS_33998182_009          2         0.1 +j      0.1        0.1       0.8496
BUS_33998182_009          3         0.2 +j      0.1        0.3       0.8507
BUS_33998182_009          4        -0.0 +j      0.0        0.0      -0.9654
   TERMINAL TOTAL .............     0.9 +j      0.5        1.0       0.8503
BUS_33998182_012          1        -0.5 +j     -0.3        0.6       0.8502
BUS_33998182_012          2        -0.1 +j     -0.1        0.1       0.8495
BUS_33998182_012          3        -0.2 +j     -0.1        0.3       0.8507
BUS_33998182_012          4         0.0 +j      0.0        0.0       0.9683
   TERMINAL TOTAL .............    -0.9 +j     -0.5        1.0       0.8502

ELEMENT = "Line._AN_L28-RAMAL"
BUS_33998182_009          1         0.3 +j      0.2        0.3       0.8502
BUS_33998182_009          4        -0.0 +j     -0.0        0.0       0.9998
   TERMINAL TOTAL .............     0.3 +j      0.2        0.3       0.8501
BUS_33998182_028          1        -0.3 +j     -0.2        0.3       0.8501
BUS_33998182_028          4         0.0 +j      0.0        0.0       0.9994
   TERMINAL TOTAL .............    -0.3 +j     -0.2        0.3       0.8500

ELEMENT = "Line._CN_L29-RAMAL"
BUS_33998182_009          3         0.1 +j      0.1        0.2       0.8501
BUS_33998182_009          4         0.0 +j      0.0        0.0       0.4878
   TERMINAL TOTAL .............     0.1 +j      0.1        0.2       0.8501
BUS_33998182_029          3        -0.1 +j     -0.1        0.2       0.8501
BUS_33998182_029          4        -0.0 +j     -0.0        0.0       0.1730
   TERMINAL TOTAL .............    -0.1 +j     -0.1        0.2       0.8500

ELEMENT = "Line._AN_L30-RAMAL"
BUS_33998182_010          1         0.2 +j      0.1        0.3       0.8502
BUS_33998182_010          4        -0.0 +j      0.0        0.0      -0.0683
   TERMINAL TOTAL .............     0.2 +j      0.1        0.3       0.8501
BUS_33998182_030          1        -0.2 +j     -0.1        0.3       0.8502
BUS_33998182_030          4         0.0 +j     -0.0        0.0      -0.5743
   TERMINAL TOTAL .............    -0.2 +j     -0.1        0.3       0.8500

ELEMENT = "Line._CN_L31-RAMAL"
BUS_33998182_011          3         0.3 +j      0.2        0.3       0.8507
BUS_33998182_011          4        -0.0 +j     -0.0        0.0       0.9890
   TERMINAL TOTAL .............     0.3 +j      0.2        0.3       0.8502
BUS_33998182_031          3        -0.3 +j     -0.2        0.3       0.8506
BUS_33998182_031          4         0.0 +j      0.0        0.0       0.9912
   TERMINAL TOTAL .............    -0.3 +j     -0.2        0.3       0.8500

ELEMENT = "Line._CN_L32-RAMAL"
BUS_33998182_011          3         0.3 +j      0.2        0.4       0.8508
BUS_33998182_011          4        -0.0 +j     -0.0        0.0       0.9891
   TERMINAL TOTAL .............     0.3 +j      0.2        0.4       0.8503
BUS_33998182_032          3        -0.3 +j     -0.2        0.4       0.8506
BUS_33998182_032          4         0.0 +j      0.0        0.0       0.9914
   TERMINAL TOTAL .............    -0.3 +j     -0.2        0.4       0.8500

ELEMENT = "Line._AN_L33-RAMAL"
BUS_33998182_011          1         0.2 +j      0.1        0.2       0.8488
BUS_33998182_011          4         0.0 +j     -0.0        0.0      -0.6469
   TERMINAL TOTAL .............     0.2 +j      0.1        0.2       0.8501
BUS_33998182_033          1        -0.2 +j     -0.1        0.2       0.8488
BUS_33998182_033          4        -0.0 +j      0.0        0.0      -0.5929
   TERMINAL TOTAL .............    -0.2 +j     -0.1        0.2       0.8500

ELEMENT = "Line._ACN_L34-RAMAL"
BUS_33998182_011          1         0.2 +j      0.1        0.2       0.8487
BUS_33998182_011          3         0.2 +j      0.1        0.2       0.8506
BUS_33998182_011          4        -0.0 +j     -0.0        0.0       0.3344
   TERMINAL TOTAL .............     0.3 +j      0.2        0.4       0.8501
BUS_33998182_034          1        -0.2 +j     -0.1        0.2       0.8487
BUS_33998182_034          3        -0.2 +j     -0.1        0.2       0.8506
BUS_33998182_034          4         0.0 +j      0.0        0.0       0.3876
   TERMINAL TOTAL .............    -0.3 +j     -0.2        0.4       0.8500

ELEMENT = "Line._AN_L35-RAMAL"
BUS_33998182_012          1         0.2 +j      0.1        0.3       0.8502
BUS_33998182_012          4        -0.0 +j     -0.0        0.0       0.8550
   TERMINAL TOTAL .............     0.2 +j      0.1        0.3       0.8502
BUS_33998182_035          1        -0.2 +j     -0.1        0.3       0.8501
BUS_33998182_035          4         0.0 +j      0.0        0.0       0.9069
   TERMINAL TOTAL .............    -0.2 +j     -0.1        0.3       0.8500

ELEMENT = "Line._BN_L36-RAMAL"
BUS_33998182_012          2         0.0 +j     -0.0        0.0      -0.0009
BUS_33998182_012          4        -0.0 +j     -0.0        0.0       0.8749
   TERMINAL TOTAL .............     0.0 +j     -0.0        0.0      -0.0000
BUS_33998182_036          2        -0.0 +j      0.0        0.0      -0.3596
BUS_33998182_036          4         0.0 +j     -0.0        0.0      -0.8492
   TERMINAL TOTAL .............    -0.0 +j      0.0        0.0      -0.3592

ELEMENT = "Line._CN_L37-RAMAL"
BUS_33998182_012          3         0.2 +j      0.1        0.3       0.8507
BUS_33998182_012          4         0.0 +j      0.0        0.0       0.0025
   TERMINAL TOTAL .............     0.2 +j      0.1        0.3       0.8502
BUS_33998182_037          3        -0.2 +j     -0.1        0.3       0.8506
BUS_33998182_037          4         0.0 +j     -0.0        0.0      -0.3000
   TERMINAL TOTAL .............    -0.2 +j     -0.1        0.3       0.8500

ELEMENT = "Line._BN_L38-RAMAL"
BUS_33998182_012          2         0.1 +j      0.1        0.1       0.8495
BUS_33998182_012          4         0.0 +j     -0.0        0.0      -0.8788
   TERMINAL TOTAL .............     0.1 +j      0.1        0.1       0.8501
BUS_33998182_038          2        -0.1 +j     -0.1        0.1       0.8495
BUS_33998182_038          4        -0.0 +j      0.0        0.0      -0.8573
   TERMINAL TOTAL .............    -0.1 +j     -0.1        0.1       0.8500

ELEMENT = "Line._AN_L39-RAMAL"
BUS_33998182_012          1         0.3 +j      0.2        0.3       0.8502
BUS_33998182_012          4        -0.0 +j     -0.0        0.0       0.8556
   TERMINAL TOTAL .............     0.3 +j      0.2        0.3       0.8502
BUS_33998182_039          1        -0.3 +j     -0.2        0.3       0.8501
BUS_33998182_039          4         0.0 +j      0.0        0.0       0.9104
   TERMINAL TOTAL .............    -0.3 +j     -0.2        0.3       0.8500

ELEMENT = "Reactor.GND_R01"
BUS_XFMR_SEC_33998182     4         0.0 +j      0.0        0.0       1.0000
   TERMINAL TOTAL .............     0.0 +j      0.0        0.0       1.0000
BUS_XFMR_SEC_33998182     0         0.0 +j      0.0        0.0       1.0000
   TERMINAL TOTAL .............     0.0 +j      0.0        0.0       1.0000

ELEMENT = "Reactor.GND_R02"
BUS_33998182_030          4         0.0 +j      0.0        0.0       1.0000
   TERMINAL TOTAL .............     0.0 +j      0.0        0.0       1.0000
BUS_33998182_030          0         0.0 +j      0.0        0.0       1.0000
   TERMINAL TOTAL .............     0.0 +j      0.0        0.0       1.0000

ELEMENT = "Reactor.GND_R03"
BUS_33998182_025          4         0.0 +j      0.0        0.0       1.0000
   TERMINAL TOTAL .............     0.0 +j      0.0        0.0       1.0000
BUS_33998182_025          0         0.0 +j      0.0        0.0       1.0000
   TERMINAL TOTAL .............     0.0 +j      0.0        0.0       1.0000

ELEMENT = "Reactor.GND_R04"
BUS_33998182_031          4         0.0 +j      0.0        0.0       1.0000
   TERMINAL TOTAL .............     0.0 +j      0.0        0.0       1.0000
BUS_33998182_031          0         0.0 +j      0.0        0.0       1.0000
   TERMINAL TOTAL .............     0.0 +j      0.0        0.0       1.0000

ELEMENT = "Reactor.GND_R05"
BUS_33998182_032          4         0.0 +j      0.0        0.0       1.0000
   TERMINAL TOTAL .............     0.0 +j      0.0        0.0       1.0000
BUS_33998182_032          0         0.0 +j      0.0        0.0       1.0000
   TERMINAL TOTAL .............     0.0 +j      0.0        0.0       1.0000

ELEMENT = "Reactor.GND_R06"
BUS_33998182_033          4         0.0 +j     -0.0        0.0      -1.0000
   TERMINAL TOTAL .............     0.0 +j     -0.0        0.0      -1.0000
BUS_33998182_033          0         0.0 +j      0.0        0.0       1.0000
   TERMINAL TOTAL .............     0.0 +j      0.0        0.0       1.0000

ELEMENT = "Reactor.GND_R07"
BUS_33998182_029          4         0.0 +j     -0.0        0.0      -1.0000
   TERMINAL TOTAL .............     0.0 +j     -0.0        0.0      -1.0000
BUS_33998182_029          0         0.0 +j      0.0        0.0       1.0000
   TERMINAL TOTAL .............     0.0 +j      0.0        0.0       1.0000

ELEMENT = "Reactor.GND_R08"
BUS_33998182_015          4         0.0 +j      0.0        0.0       1.0000
   TERMINAL TOTAL .............     0.0 +j      0.0        0.0       1.0000
BUS_33998182_015          0         0.0 +j      0.0        0.0       1.0000
   TERMINAL TOTAL .............     0.0 +j      0.0        0.0       1.0000

ELEMENT = "Reactor.GND_R09"
BUS_33998182_038          4         0.0 +j     -0.0        0.0      -1.0000
   TERMINAL TOTAL .............     0.0 +j     -0.0        0.0      -1.0000
BUS_33998182_038          0         0.0 +j      0.0        0.0       1.0000
   TERMINAL TOTAL .............     0.0 +j      0.0        0.0       1.0000

ELEMENT = "Reactor.GND_R10"
BUS_33998182_037          4         0.0 +j      0.0        0.0       1.0000
   TERMINAL TOTAL .............     0.0 +j      0.0        0.0       1.0000
BUS_33998182_037          0         0.0 +j      0.0        0.0       1.0000
   TERMINAL TOTAL .............     0.0 +j      0.0        0.0       1.0000

ELEMENT = "Reactor.GND_R11"
BUS_33998182_028          4         0.0 +j     -0.0        0.0      -1.0000
   TERMINAL TOTAL .............     0.0 +j     -0.0        0.0      -1.0000
BUS_33998182_028          0         0.0 +j      0.0        0.0       1.0000
   TERMINAL TOTAL .............     0.0 +j      0.0        0.0       1.0000

ELEMENT = "Reactor.GND_R12"
BUS_33998182_026          4         0.0 +j      0.0        0.0       1.0000
   TERMINAL TOTAL .............     0.0 +j      0.0        0.0       1.0000
BUS_33998182_026          0         0.0 +j      0.0        0.0       1.0000
   TERMINAL TOTAL .............     0.0 +j      0.0        0.0       1.0000

ELEMENT = "Reactor.GND_R13"
BUS_33998182_027          4         0.0 +j      0.0        0.0       1.0000
   TERMINAL TOTAL .............     0.0 +j      0.0        0.0       1.0000
BUS_33998182_027          0         0.0 +j      0.0        0.0       1.0000
   TERMINAL TOTAL .............     0.0 +j      0.0        0.0       1.0000

ELEMENT = "Reactor.GND_R14"
BUS_33998182_035          4         0.0 +j      0.0        0.0       1.0000
   TERMINAL TOTAL .............     0.0 +j      0.0        0.0       1.0000
BUS_33998182_035          0         0.0 +j      0.0        0.0       1.0000
   TERMINAL TOTAL .............     0.0 +j      0.0        0.0       1.0000

ELEMENT = "Reactor.GND_R15"
BUS_33998182_018          4         0.0 +j      0.0        0.0       1.0000
   TERMINAL TOTAL .............     0.0 +j      0.0        0.0       1.0000
BUS_33998182_018          0         0.0 +j      0.0        0.0       1.0000
   TERMINAL TOTAL .............     0.0 +j      0.0        0.0       1.0000

ELEMENT = "Reactor.GND_R16"
BUS_33998182_019          4         0.0 +j      0.0        0.0       1.0000
   TERMINAL TOTAL .............     0.0 +j      0.0        0.0       1.0000
BUS_33998182_019          0         0.0 +j      0.0        0.0       1.0000
   TERMINAL TOTAL .............     0.0 +j      0.0        0.0       1.0000

ELEMENT = "Reactor.GND_R17"
BUS_33998182_039          4         0.0 +j     -0.0        0.0      -1.0000
   TERMINAL TOTAL .............     0.0 +j     -0.0        0.0      -1.0000
BUS_33998182_039          0         0.0 +j      0.0        0.0       1.0000
   TERMINAL TOTAL .............     0.0 +j      0.0        0.0       1.0000

ELEMENT = "Reactor.GND_R18"
BUS_33998182_016          4         0.0 +j     -0.0        0.0      -1.0000
   TERMINAL TOTAL .............     0.0 +j     -0.0        0.0      -1.0000
BUS_33998182_016          0         0.0 +j      0.0        0.0       1.0000
   TERMINAL TOTAL .............     0.0 +j      0.0        0.0       1.0000

ELEMENT = "Reactor.GND_R19"
BUS_33998182_024          4         0.0 +j      0.0        0.0       1.0000
   TERMINAL TOTAL .............     0.0 +j      0.0        0.0       1.0000
BUS_33998182_024          0         0.0 +j      0.0        0.0       1.0000
   TERMINAL TOTAL .............     0.0 +j      0.0        0.0       1.0000

ELEMENT = "Reactor.GND_R20"
BUS_33998182_017          4         0.0 +j      0.0        0.0       1.0000
   TERMINAL TOTAL .............     0.0 +j      0.0        0.0       1.0000
BUS_33998182_017          0         0.0 +j      0.0        0.0       1.0000
   TERMINAL TOTAL .............     0.0 +j      0.0        0.0       1.0000

ELEMENT = "Reactor.GND_R21"
BUS_33998182_034          4         0.0 +j      0.0        0.0       1.0000
   TERMINAL TOTAL .............     0.0 +j      0.0        0.0       1.0000
BUS_33998182_034          0         0.0 +j      0.0        0.0       1.0000
   TERMINAL TOTAL .............     0.0 +j      0.0        0.0       1.0000

ELEMENT = "Reactor.GND_R22"
BUS_33998182_020          4         0.0 +j      0.0        0.0       1.0000
   TERMINAL TOTAL .............     0.0 +j      0.0        0.0       1.0000
BUS_33998182_020          0         0.0 +j      0.0        0.0       1.0000
   TERMINAL TOTAL .............     0.0 +j      0.0        0.0       1.0000

ELEMENT = "Reactor.GND_R23"
BUS_33998182_022          4         0.0 +j      0.0        0.0       1.0000
   TERMINAL TOTAL .............     0.0 +j      0.0        0.0       1.0000
BUS_33998182_022          0         0.0 +j      0.0        0.0       1.0000
   TERMINAL TOTAL .............     0.0 +j      0.0        0.0       1.0000

ELEMENT = "Reactor.GND_R24"
BUS_33998182_026          4         0.0 +j      0.0        0.0       1.0000
   TERMINAL TOTAL .............     0.0 +j      0.0        0.0       1.0000
BUS_33998182_026          0         0.0 +j      0.0        0.0       1.0000
   TERMINAL TOTAL .............     0.0 +j      0.0        0.0       1.0000

ELEMENT = "Reactor.GND_R25"
BUS_33998182_019          4         0.0 +j      0.0        0.0       1.0000
   TERMINAL TOTAL .............     0.0 +j      0.0        0.0       1.0000
BUS_33998182_019          0         0.0 +j      0.0        0.0       1.0000
   TERMINAL TOTAL .............     0.0 +j      0.0        0.0       1.0000

ELEMENT = "Reactor.GND_R26"
BUS_33998182_024          4         0.0 +j      0.0        0.0       1.0000
   TERMINAL TOTAL .............     0.0 +j      0.0        0.0       1.0000
BUS_33998182_024          0         0.0 +j      0.0        0.0       1.0000
   TERMINAL TOTAL .............     0.0 +j      0.0        0.0       1.0000

ELEMENT = "Reactor.GND_R27"
BUS_33998182_021          4         0.0 +j      0.0        0.0       1.0000
   TERMINAL TOTAL .............     0.0 +j      0.0        0.0       1.0000
BUS_33998182_021          0         0.0 +j      0.0        0.0       1.0000
   TERMINAL TOTAL .............     0.0 +j      0.0        0.0       1.0000

ELEMENT = "Reactor.GND_R28"
BUS_33998182_023          4         0.0 +j      0.0        0.0       1.0000
   TERMINAL TOTAL .............     0.0 +j      0.0        0.0       1.0000
BUS_33998182_023          0         0.0 +j      0.0        0.0       1.0000
   TERMINAL TOTAL .............     0.0 +j      0.0        0.0       1.0000

ELEMENT = "Transformer.T1"
BUS_XFMR_PRI_33998182     1         2.2 +j      1.8        2.8       0.7790
BUS_XFMR_PRI_33998182     2         2.4 +j      1.2        2.7       0.8981
BUS_XFMR_PRI_33998182     3         2.8 +j      1.7        3.3       0.8586
BUS_XFMR_PRI_33998182     0         0.0 +j      0.0        0.0       1.0000
   TERMINAL TOTAL .............     7.4 +j      4.6        8.8       0.8486
BUS_XFMR_SEC_33998182     1        -2.9 +j     -1.8        3.4       0.8507
BUS_XFMR_SEC_33998182     2        -1.9 +j     -1.2        2.2       0.8504
BUS_XFMR_SEC_33998182     3        -2.7 +j     -1.6        3.1       0.8506
BUS_XFMR_SEC_33998182     4        -0.0 +j     -0.0        0.0       0.6957
   TERMINAL TOTAL .............    -7.4 +j     -4.6        8.7       0.8506

= = = = = = = = = = = = = = = = = = =  = = = = = = = = = = =  = =

Power Conversion Elements

  Bus                 Phase     kW   +j  kvar         kVA         PF

ELEMENT = "Load.C01"
BUS_33998182_030          1       0.2 +j    0.1        0.3       0.8502
BUS_33998182_030          4      -0.0 +j    0.0        0.0      -0.5767
  TERMINAL TOTAL  .............     0.2 +j      0.1        0.3       0.8500

ELEMENT = "Load.C02"
BUS_33998182_025          2       0.2 +j    0.2        0.3       0.8505
BUS_33998182_025          4      -0.0 +j    0.0        0.0      -0.3280
  TERMINAL TOTAL  .............     0.2 +j      0.2        0.3       0.8500

ELEMENT = "Load.C03"
BUS_33998182_031          3       0.3 +j    0.2        0.3       0.8506
BUS_33998182_031          4      -0.0 +j   -0.0        0.0       0.9917
  TERMINAL TOTAL  .............     0.3 +j      0.2        0.3       0.8500

ELEMENT = "Load.C04"
BUS_33998182_032          3       0.3 +j    0.2        0.4       0.8506
BUS_33998182_032          4      -0.0 +j   -0.0        0.0       0.9918
  TERMINAL TOTAL  .............     0.3 +j      0.2        0.4       0.8500

ELEMENT = "Load.C05"
BUS_33998182_033          1       0.2 +j    0.1        0.2       0.8488
BUS_33998182_033          4       0.0 +j   -0.0        0.0      -0.5701
  TERMINAL TOTAL  .............     0.2 +j      0.1        0.2       0.8500

ELEMENT = "Load.C06"
BUS_33998182_029          3       0.1 +j    0.1        0.2       0.8501
BUS_33998182_029          4       0.0 +j    0.0        0.0       0.1680
  TERMINAL TOTAL  .............     0.1 +j      0.1        0.2       0.8500

ELEMENT = "Load.C07"
BUS_33998182_015          1       0.2 +j    0.1        0.2       0.8507
BUS_33998182_015          4      -0.0 +j    0.0        0.0      -0.3387
  TERMINAL TOTAL  .............     0.2 +j      0.1        0.2       0.8500

ELEMENT = "Load.C08"
BUS_33998182_038          2       0.1 +j    0.1        0.1       0.8495
BUS_33998182_038          4       0.0 +j   -0.0        0.0      -0.8505
  TERMINAL TOTAL  .............     0.1 +j      0.1        0.1       0.8500

ELEMENT = "Load.C09"
BUS_33998182_037          3       0.2 +j    0.1        0.3       0.8506
BUS_33998182_037          4      -0.0 +j    0.0        0.0      -0.3124
  TERMINAL TOTAL  .............     0.2 +j      0.1        0.3       0.8500

ELEMENT = "Load.C10"
BUS_33998182_028          1       0.3 +j    0.2        0.3       0.8501
BUS_33998182_028          4      -0.0 +j   -0.0        0.0       0.9994
  TERMINAL TOTAL  .............     0.3 +j      0.2        0.3       0.8500

ELEMENT = "Load.C11"
BUS_33998182_026          2       0.1 +j    0.1        0.1       0.8499
BUS_33998182_026          4       0.0 +j   -0.0        0.0      -0.3478
  TERMINAL TOTAL  .............     0.1 +j      0.1        0.1       0.8500

ELEMENT = "Load.C12"
BUS_33998182_027          3       0.1 +j    0.0        0.1       0.8501
BUS_33998182_027          4       0.0 +j    0.0        0.0       0.3254
  TERMINAL TOTAL  .............     0.1 +j      0.0        0.1       0.8500

ELEMENT = "Load.C13"
BUS_33998182_035          1       0.2 +j    0.1        0.3       0.8501
BUS_33998182_035          4      -0.0 +j   -0.0        0.0       0.9098
  TERMINAL TOTAL  .............     0.2 +j      0.1        0.3       0.8500

ELEMENT = "Load.C14"
BUS_33998182_018          1       0.2 +j    0.1        0.3       0.8508
BUS_33998182_018          4      -0.0 +j    0.0        0.0      -0.5201
  TERMINAL TOTAL  .............     0.2 +j      0.1        0.3       0.8500

ELEMENT = "Load.C15"
BUS_33998182_019          2       0.1 +j    0.1        0.2       0.8498
BUS_33998182_019          4      -0.0 +j   -0.0        0.0       0.6492
  TERMINAL TOTAL  .............     0.1 +j      0.1        0.2       0.8500

ELEMENT = "Load.C16"
BUS_33998182_039          1       0.3 +j    0.2        0.3       0.8501
BUS_33998182_039          4      -0.0 +j   -0.0        0.0       0.9129
  TERMINAL TOTAL  .............     0.3 +j      0.2        0.3       0.8500

ELEMENT = "Load.C17"
BUS_33998182_016          2       0.1 +j    0.0        0.1       0.8499
BUS_33998182_016          3       0.1 +j    0.0        0.1       0.8495
BUS_33998182_016          4       0.0 +j   -0.0        0.0      -0.2281
  TERMINAL TOTAL  .............     0.1 +j      0.1        0.2       0.8500

ELEMENT = "Load.C18"
BUS_33998182_024          3       0.3 +j    0.2        0.4       0.8499
BUS_33998182_024          4      -0.0 +j   -0.0        0.0       0.7560
  TERMINAL TOTAL  .............     0.3 +j      0.2        0.4       0.8500

ELEMENT = "Load.C19"
BUS_33998182_017          1       0.9 +j    0.5        1.0       0.8506
BUS_33998182_017          2       0.9 +j    0.5        1.0       0.8499
BUS_33998182_017          3       0.9 +j    0.5        1.0       0.8495
BUS_33998182_017          4       0.0 +j    0.0        0.0       0.0917
  TERMINAL TOTAL  .............     2.6 +j      1.6        3.1       0.8500

ELEMENT = "Load.C20"
BUS_33998182_034          1       0.2 +j    0.1        0.2       0.8487
BUS_33998182_034          3       0.2 +j    0.1        0.2       0.8506
BUS_33998182_034          4      -0.0 +j   -0.0        0.0       0.4227
  TERMINAL TOTAL  .............     0.3 +j      0.2        0.4       0.8500

ELEMENT = "Load.C21"
BUS_33998182_020          1       0.1 +j    0.0        0.1       0.8505
BUS_33998182_020          2       0.1 +j    0.0        0.1       0.8499
BUS_33998182_020          3       0.1 +j    0.0        0.1       0.8496
BUS_33998182_020          4       0.0 +j    0.0        0.0       0.1519
  TERMINAL TOTAL  .............     0.2 +j      0.1        0.2       0.8500

ELEMENT = "Load.C22"
BUS_33998182_022          2       0.1 +j    0.1        0.1       0.8500
BUS_33998182_022          4      -0.0 +j   -0.0        0.0       0.8580
  TERMINAL TOTAL  .............     0.1 +j      0.1        0.1       0.8500

ELEMENT = "Load.C23"
BUS_33998182_026          1       0.0 +j    0.0        0.0       0.8501
BUS_33998182_026          4      -0.0 +j    0.0        0.0      -0.9863
  TERMINAL TOTAL  .............     0.0 +j      0.0        0.0       0.8500

ELEMENT = "Load.C24"
BUS_33998182_019          3       0.0 +j    0.0        0.0       0.8495
BUS_33998182_019          4       0.0 +j   -0.0        0.0      -0.9834
  TERMINAL TOTAL  .............     0.0 +j      0.0        0.0       0.8500

ELEMENT = "Load.C25"
BUS_33998182_024          2       0.2 +j    0.1        0.3       0.8506
BUS_33998182_024          4      -0.0 +j    0.0        0.0      -0.1878
  TERMINAL TOTAL  .............     0.2 +j      0.1        0.3       0.8500

ELEMENT = "Load.C26"
BUS_33998182_021          1       0.2 +j    0.1        0.2       0.8505
BUS_33998182_021          3       0.2 +j    0.1        0.2       0.8497
BUS_33998182_021          4       0.0 +j    0.0        0.0       0.6279
  TERMINAL TOTAL  .............     0.4 +j      0.2        0.4       0.8500

ELEMENT = "Load.C27"
BUS_33998182_023          2       0.0 +j    0.0        0.0       0.8500
BUS_33998182_023          3       0.0 +j    0.0        0.0       0.8496
BUS_33998182_023          4       0.0 +j   -0.0        0.0      -0.0503
  TERMINAL TOTAL  .............     0.0 +j      0.0        0.0       0.8500


Total Circuit Losses =    0.1 +j    0.1
